* A dual opamp ngspice model
* file name: TL072.302
.subckt TL072 1out 1in- 1in+ vcc- 2in+ 2in- 2out vcc+
.include TL071.301
XU1A 1in+ 1in- vcc+ vcc- 1out TL071
XU1B 2in+ 2in- vcc+ vcc- 2out TL071
.ends